<?xml version="1.0" encoding="UTF-8"?>

<!-- generated on mån 30 apr 2018 15:54:57 by SUMO gui Version 0.26.0
<?xml version="1.0" encoding="UTF-8"?>

<configuration xmlns:xsi="http://www.w3.org/2001/XMLSchema-instance" xsi:noNamespaceSchemaLocation="http://sumo.dlr.de/xsd/sumo-gui.exeConfiguration.xsd">

    <input>
        <net-file value="./sumocfg/the_merging_highway_auto_platoon.net.xml"/>
        <route-files value="./sumocfg/merging_highway_auto_platoon.rou.xml"/>
        <additional-files value="./sumocfg/merging_highway_auto_platoon.add.xml"/>
    </input>

    <time>
        <begin value="0"/>
        <end value="86400"/>
        <step-length value="0.01"/>
    </time>

    <traci_server>
        <remote-port value="49501"/>
    </traci_server>

    <random_number>
        <seed value="0"/>
    </random_number>

    <gui_only>
        <start value="false"/>
    </gui_only>

</configuration>
